 &NAMFCNT
   LOBSONLY=.FALSE.,
 /
 &NAMFGEOM
   EFLAT0=51.07,
   EFLON0=3.70,
   EFLATC=51.07,
   EFLONC=3.70,
   EFLAT1=43.01,
   EFLON1=-6.56,
   EFDELX=4000.0,
   EFDELY=4000.0,
   NFDLUN=1,
   NFDGUN=1,
   NFDLUX=432,
   NFDGUX=432,
   Z_CANZONE=1500.,
   REDZONE=100.,
   LVAR=.TRUE.,
   LNEWGEOM=.TRUE.,
 /
 &NAMFOBS
   LSYNOP=.TRUE.,
   LAIREP=.TRUE.,
   LSATOB=.TRUE.,
   LDRIBU=.TRUE.,
   LTEMP=.TRUE.,
   LPILOT=.TRUE.,
   LSATEM=.FALSE.,
   LPAOB=.FALSE.,
   LSCATT=.TRUE.,
 /
