 &NAMFPC
   CFPFMT='LELAM',
   CFPDOM(1)='{domain}',
   CFPPHY(1)='PROFTEMPERATURE',
   CFPPHY(2)='SURFTEMPERATURE',
   CFPPHY(3)='PROFRESERV.EAU',
   CFPPHY(4)='SURFRESERV.EAU',
   CFPPHY(5)='PROFRESERV.GLACE',
   CFPPHY(6)='SURFRESERV.GLACE',
   ! 'SURFACCNEIGE', 'SURFPREC.NEI', 'SURFRESERV.NEIGE'
   ! 'SURFDENSIT.NEIGE',
   ! 'SURFRESERV.INTER'
   LFPQ=.FALSE.,
   NFPCHKDAT=0,
!   RFPCORR=30000.,
 /
