! STEPS: output every timestep
&NAMSTEPS
   LSTEPS=.TRUE.,
   LSTEPS_PRECTOT=.TRUE.,
   CSTEPS_FORMAT='NETCDF',
   NSTEPS_START=160,
   NSTEPS_STOP=1600,
!   NSTEPS_NETCDF_DEFLATE_LEVEL=4,
/


