! namelist cy46t1 for e927 with surfex
! based on mitraillette namelist naml_ahme_e001_fp_lamars
!
! modifications:
!   changed CNMEXP, CFPDOM
! 	filled in NPROC, NSTRIN, NSTROUT, MBX_SIZE, NCOMBFLEN, LOPT_SCALAR
! 	removed NAMFPD and NAMFPG
!   changed LELAM to .TRUE.

&NACIETEO
 /
 &NACOBS
 /
 &NACTAN
 /
 &NACTEX
 /
 &NACVEG
 /
 &NADOCK
 /
 &NAEAEM7
 /
 &NAEAER
 /
 &NAECOAPHY
 /
 &NAEPHLI
 /
 &NAEPHY
 /
 &NAERAD
   LRRTM=.FALSE.,
   LSRTM=.FALSE.,
   NMCICA=0,
 /
 &NAERCLI
 /
 &NAETLDIAG
 /
 &NAEVOL
 /
 &NAIMPO
 /
 &NALORI
 /
 &NAMACV
 /
 &NAMAERDET
 /
 &NAMAFN
   TFP_I%LLGP=.TRUE.,
   TFP_L%LLGP=.TRUE.,
   TFP_Q%LLGP=.T.,
   TFP_I%CLNAME='ICE_CRYSTAL',
   TFP_L%CLNAME='CLOUD_WATER',
 /
 &NAMARG
   CNMEXP='{cnmexp}',
   NCONF=1,
   LELAM=.TRUE.,
   LECMWF=.FALSE.,
   LSLAG=.FALSE.,
   NSUPERSEDE=1,
 /
 &NAMARPHY
   LMPA=.FALSE.,
   LMSE=.TRUE.,
 /
 &NAMCA
 /
 &NAMCAPE
 /
 &NAMCFU
 /
 &NAMCHEM
 /
 &NAMCHET
 /
 &NAMCHK
 /
 &NAMCLA
 /
 &NAMCLDP
 /
 &NAMCLI
 /
 &NAMCLOP15
 /
 &NAMCLTC
 /
 &NAMCOK
 /
 &NAMCOM
 /
 &NAMCOMPO
 /
 &NAMCOSJO
 /
 &NAMCT0
   NSPPR=0,
   NFPOS=1,
   LGRIB_API=.FALSE.,
   LALLOPR=.FALSE.,
   NUNDEFLD=-99999999,
!   LSPRT=.TRUE.,
 /
 &NAMCT1
   N1HIS=0,
   LRFILAF=.FALSE.,
 /
 &NAMCUMF
 /
 &NAMCUMFS
 /
 &NAMCVER
 /
 &NAMCVMNH
 /
 &NAMDDH
 /
 &NAMDFI
 /
 &NAMDIM
   NPROMA=-50,
 /
 &NAMDIMO
 /
 &NAMDIM_TRAJ
 /
 &NAMDPHY
 /
 &NAMDVISI
 /
 &NAMDYN
 /
 &NAMDYNA
   NDLNPR=1,
 /
 &NAMDYNCORE
 /
 &NAMEMIS_CONF
 /
 &NAMENKF
 /
 &NAMFA
   NBITCS=-1,
   NSTRON=-1,
   NBITPG=-1,
 /
 &NAMFAINIT
 /
 &NAMFPC
   NFPSURFEX=1,
   LTRACEFP=.TRUE.,
   CFPFMT='LELAM',
   CFPDOM(1)='{cfpdom}',
   CFPPHY(1)='SURFTEMPERATURE',
   CFPPHY(2)='SURFIND.TERREMER',
   CFPPHY(3)='PROFTEMPERATURE',
   CFPPHY(4)='SURFRESERV.EAU',
   CFPPHY(5)='PROFRESERV.EAU',
   CFPPHY(6)='PROFRESERV.GLACE',
   CFPPHY(7)='SURFRESERV.GLACE',
   CFPPHY(8)='SURFRESERV.NEIGE',
   CFPPHY(9)='SURFPROP.ARGILE',
   CFPPHY(10)='SURFPROP.SABLE',
   CFPPHY(11)='SURFEPAIS.SOL',
   CFPPHY(12)='SURFGEOPOTENTIEL',
   CFPPHY(13)='SEASURFTEMPERATU',
   NFPCLI=2,
   NFPMASK=2,
 /
 &NAMFPDY2
 /
 &NAMFPDYF
 /
 &NAMFPDYH
 /
 &NAMFPDYI
 /
 &NAMFPDYP
 /
 &NAMFPDYS
 /
 &NAMFPDYT
 /
 &NAMFPDYV
 /
 &NAMFPF
 /
 &NAMFPIOS
   NFPXFLD=200,
 /
 &NAMFPMOVE
 /
 &NAMFPPHY
 /
 &NAMFPSC2
   NFPROMA=-50,
 /
 &NAMFPSC2_DEP
   NFPROMA_DEP=-50,
 /
 &NAMGEM
 /
 &NAMGFL
   YQ_NL%LGP=.T.,
   YQ_NL%LSP=.F.,
 /
 &NAMGRIB
 /
 &NAMGWD
 /
 &NAMGWDIAG
 /
 &NAMGWWMS
 /
 &NAMIAU
 /
 &NAMICE
 /
 &NAMINI
   LDFI=.FALSE.,
 /
 &NAMINTFLEX
 /
 &NAMIOMI
 /
 &NAMIOS
 /
 &NAMIO_SERV
 /
 &NAMJBCODES
 /
 &NAMJG
 /
 &NAMLCZ
 /
 &NAMLIMA
 /
 &NAMLSFORC
 /
 &NAMMARS
 /
 &NAMMCC
 /
 &NAMMCUF
 /
 &NAMMETHOX
 /
 &NAMMKODB
 /
 &NAMMODERR
 /
 &NAMMTS
 /
 &NAMMWAVE
 /
 &NAMNORGWD
 /
 &NAMNPROF
 /
 &NAMNUD
 /
 &NAMOBS
 /
 &NAMOOPS
 /
 &NAMOPH
!   NCADFORM=1,
 /
 &NAMOPTCMEM
 /
 &NAMPAR0
   MBX_SIZE=2048000000,
   NOUTPUT=1,
   NPROC={nproc}
!   NPRGPNS={nprgns},
!   NPRGPEW={nprgpew},
!   NPRTRW={nprtrw},
!   NPRTRV={npttrv},
   MP_TYPE=2,
   LOPT_SCALAR=.TRUE.,
   NPRINTLEV=0,
 /
 &NAMPAR1
!   L_GATHERV_WRGP=.FALSE.,
   LEQ_REGIONS=.FALSE.,
   LSPLIT=.FALSE.,
   NSTRIN={nproc},
   NSTROUT={nproc},
   NCOMBFLEN=1800000,
 /
 &NAMPARAR
 /
 &NAMPHMSE
   LPGDFWR=.FALSE.,
 /
 &NAMPHY
   LFGEL=.TRUE.,
   LMPHYS=.TRUE.,
   LRAY=.FALSE.,
   LSOLV=.TRUE.,
 /
 &NAMPHY0
 /
 &NAMPHY1
 /
 &NAMPHY2
 /
 &NAMPHY3
 /
 &NAMPHYDS
 /
 &NAMPPC
 /
 &NAMPPVI
 /
 &NAMPRE
 /
 &NAMRAD15
 /
 &NAMRADCMEM
 /
 &NAMRCF
 /
 &NAMRCOEF
 /
 &NAMRES
 /
 &NAMRGRI
 /
 &NAMRINC
 /
 &NAMRIP
   CSTOP='t0',
   TSTEP=60.,
 /
 &NAMRIP0
 /
 &NAMRLX
 /
 &NAMSATS
 /
 &NAMSCC
 /
 &NAMSCEN
 /
 &NAMSCM
 /
 &NAMSEKF
 /
 &NAMSENS
 /
 &NAMSIMPHL
 /
 &NAMSPNG
 /
 &NAMSPP
 /
 &NAMSPSDT
 /
 &NAMSTA
 /
 &NAMSTOPH
 /
 &NAMSWE
 /
 &NAMTESTVAR
 /
 &NAMTHLIM
 /
 &NAMTOPH
 /
 &NAMTRAJP
 /
 &NAMTRANS
 /
 &NAMTRANS0
 /
 &NAMVAR
 /
 &NAMVARBC
 /
 &NAMVARBC_AIREP
 /
 &NAMVARBC_ALLSKY
 /
 &NAMVARBC_GBRAD
 /
 &NAMVARBC_RAD
 /
 &NAMVARBC_SFCOBS
 /
 &NAMVARBC_TCWV
 /
 &NAMVARBC_TO3
 /
 &NAMVAREPS
 /
 &NAMVDF
 /
 &NAMVDOZ
 /
 &NAMVOLCANO
 /
 &NAMVRTL
 /
 &NAMVV0
 /
 &NAMVV1
 /
 &NAMVWRK
 /
 &NAMWAVELETJB
 /
 &NAMXFU
 /
 &NAM_CANAPE
 /
 &NAM_DISTRIBUTED_VECTORS
 /
 &NAPHLC
 /
 &NEMCT0
 /
 &NEMDIM
 /
 &NEMDYN
 /
 &NEMELBC0A
 /
 &NEMELBC0B
 /
 &NEMFPEZO
 /
 &NEMGEO
 /
 &NEMJK
 /
 &NEMVAR
 /
 &NEMWAVELET
 /
 &NAMSTEPS
 /
