! empty domin specifications for inline fullpos to model domain
&NAMFPD
/
&NAMFPG
/
