&NAMDYNCORE
/
&NAMSCEN
/
&NADIRS
InbTypeBufr=200,
!SIGMAO_COEF(1:15)=.67,.67,.67,.67,.67,.67,.67,.67,.67,.67,.67,.67,.67,.67,.67,
!NLON_GRIB=1500,
!NLAT_GRIB=750,
!ASCAT_XYGRID=25000 ,

INBTYPEBUFR=1000,
InbTypeHdf5=50  ,
!LVARBC_APD=.TRUE.,
 /
&BUFR
GPSSOLMETHOD="MEAN", 
LPACOME = .TRUE.,
ORIGINE(1:8) = 80,81,89,180,181,202,212,242,

/
&NAMSATFREQ
/
&HDF5
/
&NETCDF
/
&GRIB
/
