! STEPS: turn off
&NAMSTEPS
   LSTEPS=.FALSE.,
/


