&NAMFPC
CFPFMT='MODEL',
NFPCLI=0,
CFPDOM(1)='zzzz',
CFPDIR='pf',
CFPCFU(1)='ATMOHUMI LIQUIDE','ATMOHUMI SOLIDE','ATMOHUMI TOTALE',
 'SURFCHAL LATENTE','SURFCONTENU EAU','SURFDISSIP SURF',
 'SURFPRESSION SOL','SURFRAYT SOLA DE','SURFRAYT THER DE',
/
&NAMFPD
/
&NAMFPG
/
