&NAMFPD 
NLAT=520, NLON=510,
RLONC=4.5535,
RLATC=50.75,
RDELX=0.0185,
RDELY=0.0117,
/
&NAMFPG 
NFPLEV=87,
FPVALH(0:87)=
      0.0000000000,
    217.4625460000,
    669.6928830000,
   1316.4112250000
   2089.7394080000,
   2965.4550540000,
   3929.5589690000,
   4972.6055910000,
   6079.0170810000,
   7223.8129070000,
   8390.1746740000,
   9563.0731590000,
  10728.2568660000,
  11871.9943330000,
  12981.0012770000,
  14042.4517250000,
  15044.0384400000,
  15974.0662500000,
  16821.5683390000,
  17576.4380940000,
  18229.5700330000,
  18773.0036020000,
  19200.0636740000,
  19505.4915560000,
  19685.5604410000,
  19738.1695460000,
  19662.9117690000,
  19467.9548290000,
  19174.2151450000,
  18799.8675160000,
  18360.6337710000,
  17869.9200570000,
  17339.0233930000,
  16777.3737240000,
  16192.7869050000,
  15591.7117430000,
  14979.4602740000,
  14360.4149810000,
  13738.2099820000,
  13115.8854480000,
  12496.0160320000,
  11880.8150480000,
  11272.2166340000,
  10671.9384400000,
  10081.5274650000,
   9502.3916210000,
   8935.8195510000,
   8382.9910250000,
   7844.9801300000,
   7322.7532450000,
   6817.1635890000,
   6328.9439560000,
   5858.6989980000,
   5406.8982480000,
   4973.8708470000,
   4559.8027800000,
   4164.7372420000,
   3788.5786640000,
   3431.1007870000,
   3091.9592020000,
   2770.7087330000,
   2466.8261690000,
   2179.7390040000,
   1908.8611100000,
   1658.4345200000,
   1432.2412330000,
   1228.9001490000,
   1047.0204780000,
    885.2129400000,
    742.0993090000,
    616.3205230000,
    506.5435260000,
    411.4670090000,
    329.8262100000,
    260.3968950000,
    201.9986390000,
    153.4975290000,
    113.8083640000,
     81.8964510000,
     56.7790600000,
     37.5266020000,
     23.2635900000,
     13.1693790000,
      6.4787010000,
      2.4818240000,
      0.5238110000,
      0.0000000000,
      0.0000000000,
FPVBH(0:87)=
      0.0000000000,
      0.0000000000,
      0.0000000000,
      0.0000000000
      0.0000000000,
      0.0000000000,
      0.0000000000,
      0.0000000000
      0.0000853058,
      0.0004494320,
      0.0012157032,
      0.0024971551
      0.0044046099,
      0.0070479403,
      0.0105358929,
      0.0149753307
      0.0204701548,
      0.0271200160,
      0.0350188823,
      0.0442535121
      0.0549018829,
      0.0670316250,
      0.0806985139,
      0.0959450775
      0.1127993721,
      0.1312739822,
      0.1513652922,
      0.1724677859
      0.1938794495,
      0.2154561806,
      0.2370811471,
      0.2586622343
      0.2801289663,
      0.3014292262,
      0.3225260049,
      0.3433943361
      0.3640185136,
      0.3843896442,
      0.4045035564,
      0.4243590641
      0.4439565704,
      0.4632969856,
      0.4823809320,
      0.5012082037
      0.5197774489,
      0.5380860456,
      0.5561301398,
      0.5739048188
      0.5914043953,
      0.6086227780,
      0.6255539091,
      0.6421922501
      0.6585333012,
      0.6745741403,
      0.6903139733,
      0.7057546845
      0.7209013844,
      0.7357629483,
      0.7503525439,
      0.7646881455
      0.7787930335,
      0.7926962759,
      0.8064331909,
      0.8200457823
      0.8333213105,
      0.8460198864,
      0.8581535648,
      0.8697344112
      0.8807743822,
      0.8912852204,
      0.9012783620,
      0.9107648541
      0.9197552800,
      0.9282596898,
      0.9362875344,
      0.9438475989
      0.9509479333,
      0.9575957744,
      0.9637974544,
      0.9695582842
      0.9748823965,
      0.9797725203,
      0.9842296313,
      0.9882523549
      0.9918358070,
      0.9949687797,
      0.9976215149,
      1.0000000000
/
