&NAMFPD 
NLAT=432, NLON=432,
NFPLUX=421, NFPGUX=421,
RLONC=3.7,
RLATC=51.07,
RDELX=4000.,
RDELY=4000.,
/
&NAMFPG 
FPLAT0=51.07,
FPLON0=3.7,
! BEWARE: to get LINEAR GRID you MUST specify the truncation here.
NFPMAX=215, NMFPMAX=215,
NFPLEV=105,
! Currently image files contain 105 levels, hence not mandatory to repeat:
FPVALH(0:105)=
      0.00000000000000    ,
      20.0000000000000    ,
      30.0900250000000    ,
      44.5725840000000    ,
      64.8628530000000    ,
      93.1103600000000    ,
      132.443415000000    ,
      187.540847000000    ,
      263.803409000000    ,
      367.681628000000    ,
      506.562941000000    ,
      688.379537000000    ,
      920.841495000000    ,
      1207.50433400000    ,
      1549.81194200000    ,
      1947.24209100000    ,
      2396.52358700000    ,
      2892.31162900000    ,
      3428.50265400000    ,
      4000.08753600000    ,
      4605.37748700000    ,
      5248.46283900000    ,
      5920.02418000000    ,
      6608.29461600000    ,
      7236.06117600000    ,
      7792.44141100000    ,
      8292.17133200000    ,
      8741.11759000000    ,
      9144.69298900000    ,
      9509.06444400000    ,
      9841.33832100000    ,
      10149.4364970000    ,
      10441.8470130000    ,
      10727.2842700000    ,
      11003.4669370000    ,
      11268.2827840000    ,
      11519.8068600000    ,
      11756.3103980000    ,
      11976.2581440000    ,
      12178.2920550000    ,
      12361.1999510000    ,
      12523.8678620000    ,
      12665.2149630000    ,
      12784.1100870000    ,
      12879.2685310000    ,
      12949.0554890000    ,
      12991.4073950000    ,
      13004.4792440000    ,
      12986.7986620000    ,
      12937.1816270000    ,
      12854.7154740000    ,
      12738.7333460000    ,
      12588.7811340000    ,
      12404.5783710000    ,
      12185.9748850000    ,
      11932.9053920000    ,
      11645.3444880000    ,
      11323.2647830000    ,
      10966.6012810000    ,
      10575.2255050000    ,
      10148.9334450000    ,
      9690.68809900000    ,
      9204.26495900000    ,
      8694.16286200000    ,
      8165.48513700000    ,
      7623.79567200000    ,
      7074.95626400000    ,
      6524.95242500000    ,
      5979.71615800000    ,
      5444.95367100000    ,
      4925.98601700000    ,
      4427.60954700000    ,
      3953.98176800000    ,
      3508.53667400000    ,
      3093.93147700000    ,
      2711.53575900000    ,
      2361.94653400000    ,
      2045.05613500000    ,
      1760.13834100000    ,
      1505.94654500000    ,
      1280.85569000000    ,
      1082.95319800000    ,
      910.128593000000    ,
      760.156637000000    ,
      630.868213000000    ,
      520.135633000000    ,
      425.907991000000    ,
      346.238826000000    ,
      279.306705000000    ,
      223.429418000000    ,
      177.072555000000    ,
      138.853271000000    ,
      107.540044000000    ,
      82.0492750000000    ,
      61.5200200000000    ,
      45.1846750000000    ,
      32.3647680000000    ,
      22.4659420000000    ,
      14.9723630000000    ,
      9.44074800000000    ,
      5.49419100000000    ,
      2.81596200000000    ,
      1.14339600000000    ,
     0.262019000000000    ,
      0.00000000000000    ,
      0.00000000000000    ,
FPVBH(0:105)=
      0.00000000000000    ,
      0.00000000000000    ,
      0.00000000000000    ,
      0.00000000000000    ,
      0.00000000000000    ,
      0.00000000000000    ,
      0.00000000000000    ,
      0.00000000000000    ,
      0.00000000000000    ,
      0.00000000000000    ,
      0.00000000000000    ,
      0.00000000000000    ,
      0.00000000000000    ,
      0.00000000000000    ,
      0.00000000000000    ,
      0.00000000000000    ,
      0.00000000000000    ,
      0.00000000000000    ,
      0.00000000000000    ,
      0.00000000000000    ,
      0.00000000000000    ,
      0.00000000000000    ,
      0.00000000000000    ,
      0.00000000000000    ,
     0.658361400000000E-03,
     0.198661550000000E-02,
     0.375863290000000E-02,
     0.585926300000000E-02,
     0.820855070000000E-02,
     0.107558012000000E-01,
     0.134825104000000E-01,
     0.164075393000000E-01,
     0.195935371000000E-01,
     0.231554825000000E-01,
     0.271081824000000E-01,
     0.314653107000000E-01,
     0.362398827000000E-01,
     0.414449575000000E-01,
     0.470945886000000E-01,
     0.532050399000000E-01,
     0.597962823000000E-01,
     0.668937902000000E-01,
     0.745306536000000E-01,
     0.827500364000000E-01,
     0.916080249000000E-01,
     0.101164292800000    ,
     0.111438526400000    ,
     0.122432416500000    ,
     0.134154290100000    ,
     0.146611201600000    ,
     0.159809663700000    ,
     0.173756529400000    ,
     0.188460004200000    ,
     0.203930777600000    ,
     0.220183254400000    ,
     0.237236865700000    ,
     0.255117438700000    ,
     0.273858604500000    ,
     0.293503223400000    ,
     0.314104805400000    ,
     0.335728904200000    ,
     0.358297060500000    ,
     0.381717071400000    ,
     0.405883804000000    ,
     0.430680412800000    ,
     0.455979918000000    ,
     0.481647076800000    ,
     0.507540486700000    ,
     0.533514819300000    ,
     0.559423111100000    ,
     0.585119022200000    ,
     0.610458985300000    ,
     0.635304181600000    ,
     0.659522285100000    ,
     0.682988955700000    ,
     0.705618731700000    ,
     0.727341464900000    ,
     0.748102778400000    ,
     0.767864256000000    ,
     0.786603411400000    ,
     0.804310412500000    ,
     0.820987845500000    ,
     0.836650262600000    ,
     0.851323688500000    ,
     0.865034441200000    ,
     0.877813340100000    ,
     0.889695232000000    ,
     0.900718573200000    ,
     0.910925064200000    ,
     0.920359333800000    ,
     0.929068668400000    ,
     0.937102783400000    ,
     0.944513630400000    ,
     0.951355234500000    ,
     0.957656975900000    ,
     0.963448592200000    ,
     0.968760110100000    ,
     0.973621787700000    ,
     0.978064067200000    ,
     0.982117536200000    ,
     0.985812896300000    ,
     0.989180937600000    ,
     0.992252518600000    ,
     0.995058550300000    ,
     0.997629983700000    ,
      1.00000000000000    ,
/
