! $Id: BE70c_g2,v 1.2 2008/09/24 09:51:42 ald_team Exp $
&NAMFPD 
! Beware: each on a separate line with the (1)
 NLAT(1)=     115,
 NLON(1)=     115,
 RLONC(1)=    3.9,
 RLATC(1)=   50.6,
 RDELX(1)= 0.1667,
 RDELY(1)= 0.1175,
/
&NAMFPG 
 NFPLEV=46,
 FPVALH(0:46)=
     0.00000000000000   ,
     10.8731270000000   ,
     30.8034240000000   ,
     72.0580230000000   ,
     130.833383000000   ,
     234.126846000000   ,
     458.253235000000   ,
     516.473511000000   ,
     734.981567000000   ,
     928.397766000000   ,
     1097.76770000000   ,
     1244.13671900000   ,
     1368.55029300000   ,
     1472.05407700000   ,
     1555.69348100000   ,
     1620.51416000000   ,
     1667.56140100000   ,
     1697.88073700000   ,
     1712.51757800000   ,
     1712.51745600000   ,
     1698.92614700000   ,
     1672.78881800000   ,
     1635.15112300000   ,
     1587.05835000000   ,
     1529.55615200000   ,
     1463.69018600000   ,
     1390.50573700000   ,
     1311.04809600000   ,
     1226.36340300000   ,
     1137.49646000000   ,
     1045.49304200000   ,
     951.398682000000   ,
     856.258728000000   ,
     761.118896000000   ,
     667.024536000000   ,
     575.021118000000   ,
     486.154266000000   ,
     401.469360000000   ,
     322.011841000000   ,
     248.827347000000   ,
     182.961258000000   ,
     125.459160000000   ,
     77.3665010000000   ,
     39.7287290000000   ,
     13.5914130000000   ,
     0.00000000000000   ,
     0.00000000000000   ,
FPVBH(0:46)=
    0.00000000000000   ,
    0.00000000000000   ,
    0.00000000000000   ,
    0.00000000000000   ,
    0.00000000000000   ,
    0.00000000000000   ,
    0.00000000000000   ,
    0.345663910000000E-02,
    0.101978322000000E-01,
    0.200514905000000E-01,
    0.328455307000000E-01,
    0.484078601000000E-01,
    0.665664002000000E-01,
    0.871490464000000E-01,
    0.109983734800000   ,
    0.134898394300000   ,
    0.161720886800000   ,
    0.190279156000000   ,
    0.220401078500000   ,
    0.251914650200000   ,
    0.284647703200000   ,
    0.318428158800000   ,
    0.353084027800000   ,
    0.388443112400000   ,
    0.424333363800000   ,
    0.460582673500000   ,
    0.497019022700000   ,
    0.533470273000000   ,
    0.569764316100000   ,
    0.605729043500000   ,
    0.641192495800000   ,
    0.675982415700000   ,
    0.709926903200000   ,
    0.742853760700000   ,
    0.774590849900000   ,
    0.804966211300000   ,
    0.833807766400000   ,
    0.860943138600000   ,
    0.886200606800000   ,
    0.909407913700000   ,
    0.930393099800000   ,
    0.948983907700000   ,
    0.965008199200000   ,
    0.978294193700000   ,
    0.988669335800000   ,
    0.995962142900000   ,
    1.00000000000000    ,
/
