&NAMFAC
NBA=20,
NBLEV=1,
ILEVEL(1)=0
CPREF(1:20)=7*'SURF',8*'CLS',5*'ATMO',
CNOMA(1:20)='PREC.EAU.GEC','PREC.EAU.CON','PREC.NEI.GEC','PREC.NEI.CON',
           'RAYT DIR SUR','RAYT SOLA DE','RAYT THER DE',
           'VENT.ZONAL','VENT.MERIDIEN','U.RAF.MOD.XFU','V.RAF.MOD.XFU',
           'TEMPERATURE','MAXI.TEMPERAT','MINI.TEMPERAT',
           'HUMI.RELATIVE',
           'NEBUL.TOTALE','NEBUL.HAUTE','NEBUL.MOYENN','NEBUL.BASSE',
           'HUMI TOTALE',
/
